
     RDKit          3D

 46 50  0  0  0  0  0  0  0  0999 V2000
   -7.8788  -52.3601   28.3393 C   0  0  0  0  0  0  0  0  0  0  0  0
   -7.2872  -51.6688   29.3502 O   0  0  0  0  0  0  0  0  0  0  0  0
   -5.9309  -51.3830   29.1954 C   0  0  0  0  0  0  0  0  0  0  0  0
   -5.1047  -52.6352   29.4855 C   0  0  0  0  0  0  0  0  0  0  0  0
   -5.2912  -53.6364   28.4767 N   0  0  0  0  0  0  0  0  0  0  0  0
   -4.6468  -53.8295   27.2440 C   0  0  0  0  0  0  0  0  0  0  0  0
   -4.6728  -55.0586   26.6655 N   0  0  0  0  0  0  0  0  0  0  0  0
   -4.0747  -55.3161   25.5083 C   0  0  0  0  0  0  0  0  0  0  0  0
   -4.0684  -56.5795   24.9110 N   0  0  0  0  0  0  0  0  0  0  0  0
   -4.9851  -56.9722   23.9011 C   0  0  0  0  0  0  0  0  0  0  0  0
   -4.9059  -56.4147   22.6662 N   0  0  0  0  0  0  0  0  0  0  0  0
   -5.7553  -56.7362   21.6778 C   0  0  0  0  0  0  0  0  0  0  0  0
   -5.7083  -56.0554   20.0655 Cl  0  0  0  0  0  0  0  0  0  0  0  0
   -6.7633  -57.6763   21.9100 C   0  0  0  0  0  0  0  0  0  0  0  0
   -7.7628  -58.1332   20.9650 C   0  0  0  0  0  0  0  0  0  0  0  0
   -7.4075  -57.7972   19.8056 O   0  0  0  0  0  0  0  0  0  0  0  0
   -6.8465  -58.2396   23.1493 C   0  0  0  0  0  0  0  0  0  0  0  0
   -8.0443  -59.4390   23.6359 Cl  0  0  0  0  0  0  0  0  0  0  0  0
   -5.9594  -57.8711   24.0984 N   0  0  0  0  0  0  0  0  0  0  0  0
   -3.4474  -54.2773   24.9580 N   0  0  0  0  0  0  0  0  0  0  0  0
   -3.3564  -53.0426   25.4305 C   0  0  0  0  0  0  0  0  0  0  0  0
   -2.6446  -51.9977   24.7850 N   0  0  0  0  0  0  0  0  0  0  0  0
   -2.5000  -50.6514   25.1811 C   0  0  0  0  0  0  0  0  0  0  0  0
   -2.1735  -50.3081   26.4785 C   0  0  0  0  0  0  0  0  0  0  0  0
   -1.9703  -49.0099   26.9367 C   0  0  0  0  0  0  0  0  0  0  0  0
   -2.1125  -47.9839   25.9963 C   0  0  0  0  0  0  0  0  0  0  0  0
   -2.4328  -48.2972   24.7163 C   0  0  0  0  0  0  0  0  0  0  0  0
   -2.6236  -49.5954   24.3133 C   0  0  0  0  0  0  0  0  0  0  0  0
   -2.9824  -49.7864   22.9196 C   0  0  0  0  0  0  0  0  0  0  0  0
   -2.9290  -50.7267   22.0950 O   0  0  0  0  0  0  0  0  0  0  0  0
   -3.5729  -48.8174   22.0152 C   0  0  0  0  0  0  0  0  0  0  0  0
   -3.8093  -47.5924   22.6503 C   0  0  0  0  0  0  0  0  0  0  0  0
   -4.3784  -46.5270   21.9942 C   0  0  0  0  0  0  0  0  0  0  0  0
   -4.7470  -46.6352   20.6469 C   0  0  0  0  0  0  0  0  0  0  0  0
   -4.5213  -47.8361   20.0070 C   0  0  0  0  0  0  0  0  0  0  0  0
   -3.9395  -48.9060   20.6986 C   0  0  0  0  0  0  0  0  0  0  0  0
   -3.6620  -50.2325   20.1443 C   0  0  0  0  0  0  0  0  0  0  0  0
   -3.0477  -51.0649   20.8356 O   0  0  0  0  0  0  0  0  0  0  0  0
   -4.1885  -50.3226   18.8180 N   0  0  0  0  0  0  0  0  0  0  0  0
   -3.9989  -51.9775   17.6885 Dy  0  0  0  0  0  1  0  0  0  0  0  0
   -3.9848  -52.8598   26.6008 N   0  0  0  0  0  0  0  0  0  0  0  0
   -5.5460  -50.2434   30.0728 C   0  0  0  0  0  0  0  0  0  0  0  0
   -4.6182  -49.2577   29.4537 C   0  0  0  0  0  0  0  0  0  0  0  0
   -5.5444  -48.2078   28.8896 C   0  0  0  0  0  0  0  0  0  0  0  0
   -6.8402  -48.5534   29.2439 O   0  0  0  0  0  0  0  0  0  0  0  0
   -6.7467  -49.3669   30.3634 C   0  0  0  0  0  0  0  0  0  0  0  0
  1  2  1  0
  2  3  1  0
  3  4  1  0
  4  5  1  0
  5  6  1  0
  6  7  2  0
  7  8  1  0
  8  9  1  0
  9 10  1  0
 10 11  2  0
 11 12  1  0
 12 13  1  0
 12 14  2  0
 14 15  1  0
 15 16  2  0
 14 17  1  0
 17 18  1  0
 17 19  2  0
  8 20  2  0
 20 21  1  0
 21 22  1  0
 22 23  1  0
 23 24  2  0
 24 25  1  0
 25 26  2  0
 26 27  1  0
 27 28  2  0
 28 29  1  0
 29 30  2  0
 29 31  1  0
 31 32  2  0
 32 33  1  0
 33 34  2  0
 34 35  1  0
 35 36  2  0
 36 37  1  0
 37 38  2  0
 37 39  1  0
 39 40  1  0
 21 41  2  0
  3 42  1  0
 42 43  1  0
 43 44  1  0
 44 45  1  0
 45 46  1  0
 41  6  1  0
 46 42  1  0
 19 10  1  0
 28 23  1  0
 36 31  1  0
M  END
$$$$
