
     RDKit          3D

 37 41  0  0  0  0  0  0  0  0999 V2000
  -19.6984   21.7711  -18.5466 O   0  0  0  0  0  0  0  0  0  0  0  0
  -20.5220   21.1230  -17.8365 C   0  0  0  0  0  0  0  0  0  0  0  0
  -20.1139   19.8145  -17.4437 N   0  0  0  0  0  0  0  0  0  0  0  0
  -18.2146   19.6188  -18.1767 Dy  0  0  0  0  0  1  0  0  0  0  0  0
  -21.7913   21.7962  -17.5066 C   0  0  0  0  0  0  0  0  0  0  0  0
  -22.9899   21.3386  -18.0084 C   0  0  0  0  0  0  0  0  0  0  0  0
  -24.0987   22.0525  -17.6120 C   0  0  0  0  0  0  0  0  0  0  0  0
  -24.0944   23.1493  -16.7817 C   0  0  0  0  0  0  0  0  0  0  0  0
  -22.8498   23.5594  -16.3096 C   0  0  0  0  0  0  0  0  0  0  0  0
  -22.8111   25.2399  -15.0380 I   0  0  0  0  0  0  0  0  0  0  0  0
  -21.6756   22.8832  -16.6688 C   0  0  0  0  0  0  0  0  0  0  0  0
  -20.5240   23.4299  -16.1264 N   0  0  0  0  0  0  0  0  0  0  0  0
  -19.8227   23.7423  -14.9512 C   0  0  0  0  0  0  0  0  0  0  0  0
  -18.7360   24.5716  -14.9787 N   0  0  0  0  0  0  0  0  0  0  0  0
  -18.0753   24.8249  -13.8403 C   0  0  0  0  0  0  0  0  0  0  0  0
  -16.9720   25.7025  -14.0080 N   0  0  0  0  0  0  0  0  0  0  0  0
  -16.2851   26.3650  -12.9819 C   0  0  0  0  0  0  0  0  0  0  0  0
  -15.3720   27.3917  -13.2305 C   0  0  0  0  0  0  0  0  0  0  0  0
  -14.7128   27.9956  -12.2217 N   0  0  0  0  0  0  0  0  0  0  0  0
  -14.8746   27.6685  -10.9250 C   0  0  0  0  0  0  0  0  0  0  0  0
  -15.7644   26.6605  -10.6141 C   0  0  0  0  0  0  0  0  0  0  0  0
  -15.9682   26.2853   -9.3237 F   0  0  0  0  0  0  0  0  0  0  0  0
  -16.4467   26.0345  -11.6472 C   0  0  0  0  0  0  0  0  0  0  0  0
  -18.4933   24.2596  -12.6997 N   0  0  0  0  0  0  0  0  0  0  0  0
  -19.5560   23.4399  -12.6317 C   0  0  0  0  0  0  0  0  0  0  0  0
  -19.7502   22.9935  -11.3001 N   0  0  0  0  0  0  0  0  0  0  0  0
  -21.0135   22.3419  -11.0765 C   0  0  0  0  0  0  0  0  0  0  0  0
  -21.1901   21.0465  -11.5110 C   0  0  0  0  0  0  0  0  0  0  0  0
  -22.3953   20.3704  -11.3065 C   0  0  0  0  0  0  0  0  0  0  0  0
  -23.4361   21.0246  -10.6494 C   0  0  0  0  0  0  0  0  0  0  0  0
  -24.6750   20.6934  -10.2969 N   0  0  0  0  0  0  0  0  0  0  0  0
  -25.2817   21.7197   -9.6633 C   0  0  0  0  0  0  0  0  0  0  0  0
  -26.4524   21.7424   -9.2003 O   0  0  0  0  0  0  0  0  0  0  0  0
  -24.4141   22.7525   -9.5997 N   0  0  0  0  0  0  0  0  0  0  0  0
  -23.2832   22.3292  -10.2028 C   0  0  0  0  0  0  0  0  0  0  0  0
  -22.0641   22.9549  -10.4319 C   0  0  0  0  0  0  0  0  0  0  0  0
  -20.2332   23.1774  -13.7796 N   0  0  0  0  0  0  0  0  0  0  0  0
  1  2  2  0
  2  3  1  0
  3  4  1  0
  2  5  1  0
  5  6  2  0
  6  7  1  0
  7  8  2  0
  8  9  1  0
  9 10  1  0
  9 11  2  0
 11 12  1  0
 12 13  1  0
 13 14  2  0
 14 15  1  0
 15 16  1  0
 16 17  1  0
 17 18  2  0
 18 19  1  0
 19 20  2  0
 20 21  1  0
 21 22  1  0
 21 23  2  0
 15 24  2  0
 24 25  1  0
 25 26  1  0
 26 27  1  0
 27 28  2  0
 28 29  1  0
 29 30  2  0
 30 31  1  0
 31 32  1  0
 32 33  2  0
 32 34  1  0
 34 35  1  0
 35 36  2  0
 25 37  2  0
 11  5  1  0
 37 13  1  0
 23 17  1  0
 36 27  1  0
 35 30  1  0
M  END
$$$$
