
     RDKit          3D

 40 44  0  0  0  0  0  0  0  0999 V2000
   -0.9729   -3.3990  -11.3616 C   0  0  0  0  0  0  0  0  0  0  0  0
   -1.1125   -2.5728  -10.0944 C   0  0  0  0  0  0  0  0  0  0  0  0
   -1.7478   -3.3787   -8.9773 C   0  0  0  0  0  0  0  0  0  0  0  0
   -1.8336   -2.5599   -7.7330 C   0  0  0  0  0  0  0  0  0  0  0  0
   -2.4372   -3.2038   -6.6973 O   0  0  0  0  0  0  0  0  0  0  0  0
   -2.7410   -2.8005   -5.4302 C   0  0  0  0  0  0  0  0  0  0  0  0
   -2.6444   -1.5909   -4.7873 C   0  0  0  0  0  0  0  0  0  0  0  0
   -3.0471   -1.5559   -3.4795 C   0  0  0  0  0  0  0  0  0  0  0  0
   -3.5417   -2.5786   -2.7072 C   0  0  0  0  0  0  0  0  0  0  0  0
   -3.6005   -3.7395   -3.4385 C   0  0  0  0  0  0  0  0  0  0  0  0
   -4.1712   -4.8690   -2.6564 C   0  0  0  0  0  0  0  0  0  0  0  0
   -5.5341   -5.0264   -2.9333 C   0  0  0  0  0  0  0  0  0  0  0  0
   -6.2196   -6.0261   -2.2877 C   0  0  0  0  0  0  0  0  0  0  0  0
   -5.5344   -6.8310   -1.3928 C   0  0  0  0  0  0  0  0  0  0  0  0
   -4.1838   -6.6812   -1.1154 C   0  0  0  0  0  0  0  0  0  0  0  0
   -3.4938   -7.5729   -0.1397 C   0  0  2  0  0  0  0  0  0  0  0  0
   -3.0726   -8.8685   -0.7514 C   0  0  0  0  0  0  0  0  0  0  0  0
   -4.0205  -10.0123   -0.6122 C   0  0  0  0  0  0  0  0  0  0  0  0
   -5.0641   -9.8566    0.4725 C   0  0  0  0  0  0  0  0  0  0  0  0
   -4.3915   -9.1139    1.5380 N   0  0  0  0  0  0  0  0  0  0  0  0
   -3.9701   -9.9510    2.6151 C   0  0  0  0  0  0  0  0  0  0  0  0
   -3.8663   -9.2721    3.6874 O   0  0  0  0  0  0  0  0  0  0  0  0
   -3.6511  -11.3589    2.7258 C   0  0  0  0  0  0  0  0  0  0  0  0
   -4.8356  -11.5567    3.5916 C   0  0  0  0  0  0  0  0  0  0  0  0
   -5.0110  -12.8961    4.0294 C   0  0  0  0  0  0  0  0  0  0  0  0
   -5.8039  -13.7648    4.7744 C   0  0  0  0  0  0  0  0  0  0  0  0
   -6.8711  -13.1566    5.3588 F   0  0  0  0  0  0  0  0  0  0  0  0
   -5.5708  -15.1061    4.9225 C   0  0  0  0  0  0  0  0  0  0  0  0
   -4.4749  -15.6789    4.3011 C   0  0  0  0  0  0  0  0  0  0  0  0
   -3.6369  -14.9076    3.5481 C   0  0  0  0  0  0  0  0  0  0  0  0
   -3.9207  -13.5942    3.4410 C   0  0  0  0  0  0  0  0  0  0  0  0
   -3.3776  -12.6022    2.8290 N   0  0  0  0  0  0  0  0  0  0  0  0
   -4.3489   -7.7434    1.0990 C   0  0  1  0  0  0  0  0  0  0  0  0
   -4.0694   -6.7776    2.1565 C   0  0  0  0  0  0  0  0  0  0  0  0
   -4.9937   -5.9807    2.5316 O   0  0  0  0  0  0  0  0  0  0  0  0
   -2.9029   -6.5210    2.9146 N   0  0  0  0  0  0  0  0  0  0  0  0
   -1.1950   -6.0107    2.1311 Dy  0  0  0  0  0  1  0  0  0  0  0  0
   -3.5153   -5.6825   -1.7659 C   0  0  0  0  0  0  0  0  0  0  0  0
   -3.2350   -3.9709   -4.7890 C   0  0  0  0  0  0  0  0  0  0  0  0
   -3.3990   -5.2190   -5.2401 F   0  0  0  0  0  0  0  0  0  0  0  0
  1  2  1  0
  2  3  1  0
  3  4  1  0
  4  5  1  0
  5  6  1  0
  6  7  2  0
  7  8  1  0
  8  9  2  0
  9 10  1  0
 10 11  1  0
 11 12  2  0
 12 13  1  0
 13 14  2  0
 14 15  1  0
 16 15  1  6
 16 17  1  0
 17 18  1  0
 18 19  1  0
 19 20  1  0
 20 21  1  0
 21 22  2  0
 21 23  1  0
 23 24  2  0
 24 25  1  0
 25 26  2  0
 26 27  1  0
 26 28  1  0
 28 29  2  0
 29 30  1  0
 30 31  2  0
 31 32  1  0
 20 33  1  0
 33 34  1  1
 34 35  2  0
 34 36  1  0
 36 37  1  0
 15 38  2  0
 10 39  2  0
 39 40  1  0
 39  6  1  0
 38 11  1  0
 33 16  1  0
 32 23  1  0
 31 25  1  0
M  END
$$$$
